<?xml version="1.0" encoding="UTF-8" standalone="yes"?>
<template encoding-version="1.2">
    <description></description>
    <groupId>755308cf-0166-1000-db2b-7c6314302298</groupId>
    <name>rpg_game_demo_flow</name>
    <snippet>
        <processGroups>
            <id>0ce6082e-0dbb-3f9d-0000-000000000000</id>
            <parentGroupId>ea6e6dc2-7bfb-369d-0000-000000000000</parentGroupId>
            <position>
                <x>0.0</x>
                <y>0.0</y>
            </position>
            <versionedComponentId>0ce6082e-0dbb-3f9d-b7ac-940411eee65f</versionedComponentId>
            <comments></comments>
            <contents>
                <connections>
                    <id>85c33d9d-0c54-3262-0000-000000000000</id>
                    <parentGroupId>0ce6082e-0dbb-3f9d-0000-000000000000</parentGroupId>
                    <versionedComponentId>85c33d9d-0c54-3262-8140-e63ba8b8fb77</versionedComponentId>
                    <backPressureDataSizeThreshold>1 GB</backPressureDataSizeThreshold>
                    <backPressureObjectThreshold>10000</backPressureObjectThreshold>
                    <destination>
                        <groupId>0ce6082e-0dbb-3f9d-0000-000000000000</groupId>
                        <id>682ab911-7787-3cda-0000-000000000000</id>
                        <type>PROCESSOR</type>
                        <versionedComponentId>682ab911-7787-3cda-bcf6-4d6780bd4897</versionedComponentId>
                    </destination>
                    <flowFileExpiration>0 sec</flowFileExpiration>
                    <labelIndex>1</labelIndex>
                    <name></name>
                    <selectedRelationships>success</selectedRelationships>
                    <source>
                        <groupId>0ce6082e-0dbb-3f9d-0000-000000000000</groupId>
                        <id>a09cad5d-aea6-3d46-0000-000000000000</id>
                        <type>PROCESSOR</type>
                        <versionedComponentId>a09cad5d-aea6-3d46-a04c-bb314b72ca72</versionedComponentId>
                    </source>
                    <zIndex>0</zIndex>
                </connections>
                <connections>
                    <id>912ca210-5a7a-34f3-0000-000000000000</id>
                    <parentGroupId>0ce6082e-0dbb-3f9d-0000-000000000000</parentGroupId>
                    <versionedComponentId>912ca210-5a7a-34f3-b86c-572b858f3e3d</versionedComponentId>
                    <backPressureDataSizeThreshold>1 GB</backPressureDataSizeThreshold>
                    <backPressureObjectThreshold>10000</backPressureObjectThreshold>
                    <destination>
                        <groupId>0ce6082e-0dbb-3f9d-0000-000000000000</groupId>
                        <id>e2908ccb-c171-3b4f-0000-000000000000</id>
                        <type>PROCESSOR</type>
                        <versionedComponentId>e2908ccb-c171-3b4f-b830-5823355573ac</versionedComponentId>
                    </destination>
                    <flowFileExpiration>0 sec</flowFileExpiration>
                    <labelIndex>1</labelIndex>
                    <name></name>
                    <selectedRelationships>success</selectedRelationships>
                    <source>
                        <groupId>0ce6082e-0dbb-3f9d-0000-000000000000</groupId>
                        <id>8f640749-dad0-388e-0000-000000000000</id>
                        <type>PROCESSOR</type>
                        <versionedComponentId>8f640749-dad0-388e-9d4a-7eeec984c858</versionedComponentId>
                    </source>
                    <zIndex>0</zIndex>
                </connections>
                <connections>
                    <id>9ac5b6c7-07f8-3024-0000-000000000000</id>
                    <parentGroupId>0ce6082e-0dbb-3f9d-0000-000000000000</parentGroupId>
                    <versionedComponentId>9ac5b6c7-07f8-3024-9ec3-419fe0c1dbac</versionedComponentId>
                    <backPressureDataSizeThreshold>1 GB</backPressureDataSizeThreshold>
                    <backPressureObjectThreshold>10000</backPressureObjectThreshold>
                    <destination>
                        <groupId>0ce6082e-0dbb-3f9d-0000-000000000000</groupId>
                        <id>83239507-2c12-3c40-0000-000000000000</id>
                        <type>PROCESSOR</type>
                        <versionedComponentId>83239507-2c12-3c40-b394-09d50aa1a13e</versionedComponentId>
                    </destination>
                    <flowFileExpiration>0 sec</flowFileExpiration>
                    <labelIndex>1</labelIndex>
                    <name></name>
                    <selectedRelationships>success</selectedRelationships>
                    <source>
                        <groupId>0ce6082e-0dbb-3f9d-0000-000000000000</groupId>
                        <id>c8efdaa4-b476-3869-0000-000000000000</id>
                        <type>PROCESSOR</type>
                        <versionedComponentId>c8efdaa4-b476-3869-b8e2-599ce4ae4821</versionedComponentId>
                    </source>
                    <zIndex>0</zIndex>
                </connections>
                <connections>
                    <id>9f3a66f4-00c5-3d9e-0000-000000000000</id>
                    <parentGroupId>0ce6082e-0dbb-3f9d-0000-000000000000</parentGroupId>
                    <versionedComponentId>9f3a66f4-00c5-3d9e-aa32-a68621c49a46</versionedComponentId>
                    <backPressureDataSizeThreshold>1 GB</backPressureDataSizeThreshold>
                    <backPressureObjectThreshold>10000</backPressureObjectThreshold>
                    <destination>
                        <groupId>0ce6082e-0dbb-3f9d-0000-000000000000</groupId>
                        <id>8a80dbbe-5dad-3529-0000-000000000000</id>
                        <type>PROCESSOR</type>
                        <versionedComponentId>8a80dbbe-5dad-3529-814d-8fdf3d33030f</versionedComponentId>
                    </destination>
                    <flowFileExpiration>0 sec</flowFileExpiration>
                    <labelIndex>1</labelIndex>
                    <name></name>
                    <selectedRelationships>success</selectedRelationships>
                    <source>
                        <groupId>0ce6082e-0dbb-3f9d-0000-000000000000</groupId>
                        <id>9da3b988-5773-3742-0000-000000000000</id>
                        <type>PROCESSOR</type>
                        <versionedComponentId>9da3b988-5773-3742-80e7-31b25fe556c6</versionedComponentId>
                    </source>
                    <zIndex>0</zIndex>
                </connections>
                <connections>
                    <id>aaf6ecd0-6088-32cd-0000-000000000000</id>
                    <parentGroupId>0ce6082e-0dbb-3f9d-0000-000000000000</parentGroupId>
                    <versionedComponentId>aaf6ecd0-6088-32cd-b291-f3d61eb927b5</versionedComponentId>
                    <backPressureDataSizeThreshold>1 GB</backPressureDataSizeThreshold>
                    <backPressureObjectThreshold>100000</backPressureObjectThreshold>
                    <destination>
                        <groupId>0ce6082e-0dbb-3f9d-0000-000000000000</groupId>
                        <id>9da3b988-5773-3742-0000-000000000000</id>
                        <type>PROCESSOR</type>
                        <versionedComponentId>9da3b988-5773-3742-80e7-31b25fe556c6</versionedComponentId>
                    </destination>
                    <flowFileExpiration>0 sec</flowFileExpiration>
                    <labelIndex>1</labelIndex>
                    <name></name>
                    <selectedRelationships>success</selectedRelationships>
                    <source>
                        <groupId>0ce6082e-0dbb-3f9d-0000-000000000000</groupId>
                        <id>b61bf28b-7e04-3a06-0000-000000000000</id>
                        <type>PROCESSOR</type>
                        <versionedComponentId>b61bf28b-7e04-3a06-b383-72d8143a9bf0</versionedComponentId>
                    </source>
                    <zIndex>0</zIndex>
                </connections>
                <connections>
                    <id>afdc953c-8947-3839-0000-000000000000</id>
                    <parentGroupId>0ce6082e-0dbb-3f9d-0000-000000000000</parentGroupId>
                    <versionedComponentId>afdc953c-8947-3839-aa87-ba16f4b4fb11</versionedComponentId>
                    <backPressureDataSizeThreshold>1 GB</backPressureDataSizeThreshold>
                    <backPressureObjectThreshold>10000</backPressureObjectThreshold>
                    <destination>
                        <groupId>0ce6082e-0dbb-3f9d-0000-000000000000</groupId>
                        <id>535cabc7-83cc-3f21-0000-000000000000</id>
                        <type>PROCESSOR</type>
                        <versionedComponentId>535cabc7-83cc-3f21-b7d5-215998d12e36</versionedComponentId>
                    </destination>
                    <flowFileExpiration>0 sec</flowFileExpiration>
                    <labelIndex>1</labelIndex>
                    <name></name>
                    <selectedRelationships>success</selectedRelationships>
                    <source>
                        <groupId>0ce6082e-0dbb-3f9d-0000-000000000000</groupId>
                        <id>5dbb99d2-eef2-3d40-0000-000000000000</id>
                        <type>PROCESSOR</type>
                        <versionedComponentId>5dbb99d2-eef2-3d40-9c59-3913fcefd3c7</versionedComponentId>
                    </source>
                    <zIndex>0</zIndex>
                </connections>
                <connections>
                    <id>bba6859b-d95c-3da2-0000-000000000000</id>
                    <parentGroupId>0ce6082e-0dbb-3f9d-0000-000000000000</parentGroupId>
                    <versionedComponentId>bba6859b-d95c-3da2-81e9-02f5532fa82f</versionedComponentId>
                    <backPressureDataSizeThreshold>1 GB</backPressureDataSizeThreshold>
                    <backPressureObjectThreshold>10000</backPressureObjectThreshold>
                    <destination>
                        <groupId>0ce6082e-0dbb-3f9d-0000-000000000000</groupId>
                        <id>93ebfe45-edd8-3653-0000-000000000000</id>
                        <type>PROCESSOR</type>
                        <versionedComponentId>93ebfe45-edd8-3653-b66c-3cc41416b904</versionedComponentId>
                    </destination>
                    <flowFileExpiration>0 sec</flowFileExpiration>
                    <labelIndex>1</labelIndex>
                    <name></name>
                    <selectedRelationships>success</selectedRelationships>
                    <source>
                        <groupId>0ce6082e-0dbb-3f9d-0000-000000000000</groupId>
                        <id>8a80dbbe-5dad-3529-0000-000000000000</id>
                        <type>PROCESSOR</type>
                        <versionedComponentId>8a80dbbe-5dad-3529-814d-8fdf3d33030f</versionedComponentId>
                    </source>
                    <zIndex>0</zIndex>
                </connections>
                <connections>
                    <id>ec325f8f-3757-3ee2-0000-000000000000</id>
                    <parentGroupId>0ce6082e-0dbb-3f9d-0000-000000000000</parentGroupId>
                    <versionedComponentId>ec325f8f-3757-3ee2-9d0e-a9268800b803</versionedComponentId>
                    <backPressureDataSizeThreshold>1 GB</backPressureDataSizeThreshold>
                    <backPressureObjectThreshold>1000000</backPressureObjectThreshold>
                    <destination>
                        <groupId>0ce6082e-0dbb-3f9d-0000-000000000000</groupId>
                        <id>51cbe1b2-4895-34f4-0000-000000000000</id>
                        <type>PROCESSOR</type>
                        <versionedComponentId>51cbe1b2-4895-34f4-aa74-1fc4efd02e27</versionedComponentId>
                    </destination>
                    <flowFileExpiration>0 sec</flowFileExpiration>
                    <labelIndex>1</labelIndex>
                    <name></name>
                    <selectedRelationships>success</selectedRelationships>
                    <source>
                        <groupId>0ce6082e-0dbb-3f9d-0000-000000000000</groupId>
                        <id>cce30050-872f-3b50-0000-000000000000</id>
                        <type>PROCESSOR</type>
                        <versionedComponentId>cce30050-872f-3b50-9ee8-d14fcaf44251</versionedComponentId>
                    </source>
                    <zIndex>0</zIndex>
                </connections>
                <connections>
                    <id>f9bfbf30-150b-3455-0000-000000000000</id>
                    <parentGroupId>0ce6082e-0dbb-3f9d-0000-000000000000</parentGroupId>
                    <versionedComponentId>f9bfbf30-150b-3455-b8cf-59c2f83a3549</versionedComponentId>
                    <backPressureDataSizeThreshold>1 GB</backPressureDataSizeThreshold>
                    <backPressureObjectThreshold>10000</backPressureObjectThreshold>
                    <destination>
                        <groupId>0ce6082e-0dbb-3f9d-0000-000000000000</groupId>
                        <id>8f7c93bd-1034-3d70-0000-000000000000</id>
                        <type>PROCESSOR</type>
                        <versionedComponentId>8f7c93bd-1034-3d70-a9d9-673f7637ffe0</versionedComponentId>
                    </destination>
                    <flowFileExpiration>0 sec</flowFileExpiration>
                    <labelIndex>1</labelIndex>
                    <name></name>
                    <selectedRelationships>success</selectedRelationships>
                    <source>
                        <groupId>0ce6082e-0dbb-3f9d-0000-000000000000</groupId>
                        <id>3ebed7c0-bb78-3af6-0000-000000000000</id>
                        <type>PROCESSOR</type>
                        <versionedComponentId>3ebed7c0-bb78-3af6-8f75-5052f4ab8b58</versionedComponentId>
                    </source>
                    <zIndex>0</zIndex>
                </connections>
                <connections>
                    <id>05e2523a-f706-3192-0000-000000000000</id>
                    <parentGroupId>0ce6082e-0dbb-3f9d-0000-000000000000</parentGroupId>
                    <versionedComponentId>05e2523a-f706-3192-a3d8-f95eb3933d20</versionedComponentId>
                    <backPressureDataSizeThreshold>1 GB</backPressureDataSizeThreshold>
                    <backPressureObjectThreshold>10000</backPressureObjectThreshold>
                    <destination>
                        <groupId>0ce6082e-0dbb-3f9d-0000-000000000000</groupId>
                        <id>11eb0606-eeba-3c4f-0000-000000000000</id>
                        <type>PROCESSOR</type>
                        <versionedComponentId>11eb0606-eeba-3c4f-81dc-dd3439ca07b6</versionedComponentId>
                    </destination>
                    <flowFileExpiration>0 sec</flowFileExpiration>
                    <labelIndex>1</labelIndex>
                    <name></name>
                    <selectedRelationships>success</selectedRelationships>
                    <source>
                        <groupId>0ce6082e-0dbb-3f9d-0000-000000000000</groupId>
                        <id>b7367b5c-05eb-3c9f-0000-000000000000</id>
                        <type>PROCESSOR</type>
                        <versionedComponentId>b7367b5c-05eb-3c9f-aa4a-e0c3f7c79d86</versionedComponentId>
                    </source>
                    <zIndex>0</zIndex>
                </connections>
                <connections>
                    <id>10340ddc-257d-34af-0000-000000000000</id>
                    <parentGroupId>0ce6082e-0dbb-3f9d-0000-000000000000</parentGroupId>
                    <versionedComponentId>10340ddc-257d-34af-89e8-f1445161464e</versionedComponentId>
                    <backPressureDataSizeThreshold>1 GB</backPressureDataSizeThreshold>
                    <backPressureObjectThreshold>10000</backPressureObjectThreshold>
                    <destination>
                        <groupId>0ce6082e-0dbb-3f9d-0000-000000000000</groupId>
                        <id>faf2a304-0832-3c83-0000-000000000000</id>
                        <type>PROCESSOR</type>
                        <versionedComponentId>faf2a304-0832-3c83-a828-ede95fcfd096</versionedComponentId>
                    </destination>
                    <flowFileExpiration>0 sec</flowFileExpiration>
                    <labelIndex>1</labelIndex>
                    <name></name>
                    <selectedRelationships>success</selectedRelationships>
                    <source>
                        <groupId>0ce6082e-0dbb-3f9d-0000-000000000000</groupId>
                        <id>8f7c93bd-1034-3d70-0000-000000000000</id>
                        <type>PROCESSOR</type>
                        <versionedComponentId>8f7c93bd-1034-3d70-a9d9-673f7637ffe0</versionedComponentId>
                    </source>
                    <zIndex>0</zIndex>
                </connections>
                <connections>
                    <id>12cf85bd-6cd6-37fe-0000-000000000000</id>
                    <parentGroupId>0ce6082e-0dbb-3f9d-0000-000000000000</parentGroupId>
                    <versionedComponentId>12cf85bd-6cd6-37fe-9bb3-7e72ab99026b</versionedComponentId>
                    <backPressureDataSizeThreshold>1 GB</backPressureDataSizeThreshold>
                    <backPressureObjectThreshold>10000</backPressureObjectThreshold>
                    <bends>
                        <x>2004.2932836283915</x>
                        <y>945.6068736939405</y>
                    </bends>
                    <bends>
                        <x>1959.4300023783915</x>
                        <y>1007.4824230103468</y>
                    </bends>
                    <destination>
                        <groupId>0ce6082e-0dbb-3f9d-0000-000000000000</groupId>
                        <id>93ebfe45-edd8-3653-0000-000000000000</id>
                        <type>PROCESSOR</type>
                        <versionedComponentId>93ebfe45-edd8-3653-b66c-3cc41416b904</versionedComponentId>
                    </destination>
                    <flowFileExpiration>0 sec</flowFileExpiration>
                    <labelIndex>1</labelIndex>
                    <name></name>
                    <selectedRelationships>failure</selectedRelationships>
                    <source>
                        <groupId>0ce6082e-0dbb-3f9d-0000-000000000000</groupId>
                        <id>93ebfe45-edd8-3653-0000-000000000000</id>
                        <type>PROCESSOR</type>
                        <versionedComponentId>93ebfe45-edd8-3653-b66c-3cc41416b904</versionedComponentId>
                    </source>
                    <zIndex>0</zIndex>
                </connections>
                <connections>
                    <id>1366a4aa-f025-3df1-0000-000000000000</id>
                    <parentGroupId>0ce6082e-0dbb-3f9d-0000-000000000000</parentGroupId>
                    <versionedComponentId>1366a4aa-f025-3df1-b41d-cc90b0084556</versionedComponentId>
                    <backPressureDataSizeThreshold>1 GB</backPressureDataSizeThreshold>
                    <backPressureObjectThreshold>10000</backPressureObjectThreshold>
                    <destination>
                        <groupId>0ce6082e-0dbb-3f9d-0000-000000000000</groupId>
                        <id>7900f68d-c666-3230-0000-000000000000</id>
                        <type>PROCESSOR</type>
                        <versionedComponentId>7900f68d-c666-3230-a68b-216225a56c0f</versionedComponentId>
                    </destination>
                    <flowFileExpiration>0 sec</flowFileExpiration>
                    <labelIndex>1</labelIndex>
                    <name></name>
                    <selectedRelationships>success</selectedRelationships>
                    <source>
                        <groupId>0ce6082e-0dbb-3f9d-0000-000000000000</groupId>
                        <id>682ab911-7787-3cda-0000-000000000000</id>
                        <type>PROCESSOR</type>
                        <versionedComponentId>682ab911-7787-3cda-bcf6-4d6780bd4897</versionedComponentId>
                    </source>
                    <zIndex>0</zIndex>
                </connections>
                <connections>
                    <id>1d3681f7-8449-34fe-0000-000000000000</id>
                    <parentGroupId>0ce6082e-0dbb-3f9d-0000-000000000000</parentGroupId>
                    <versionedComponentId>1d3681f7-8449-34fe-a0cf-f4a8dcd42b6f</versionedComponentId>
                    <backPressureDataSizeThreshold>1 GB</backPressureDataSizeThreshold>
                    <backPressureObjectThreshold>10000</backPressureObjectThreshold>
                    <bends>
                        <x>729.8361511230469</x>
                        <y>945.4575418336358</y>
                    </bends>
                    <bends>
                        <x>688.9313659667969</x>
                        <y>988.8600686891045</y>
                    </bends>
                    <destination>
                        <groupId>0ce6082e-0dbb-3f9d-0000-000000000000</groupId>
                        <id>b292855f-1f26-35d4-0000-000000000000</id>
                        <type>PROCESSOR</type>
                        <versionedComponentId>b292855f-1f26-35d4-af73-8ccf783d2e23</versionedComponentId>
                    </destination>
                    <flowFileExpiration>0 sec</flowFileExpiration>
                    <labelIndex>1</labelIndex>
                    <name></name>
                    <selectedRelationships>failure</selectedRelationships>
                    <source>
                        <groupId>0ce6082e-0dbb-3f9d-0000-000000000000</groupId>
                        <id>b292855f-1f26-35d4-0000-000000000000</id>
                        <type>PROCESSOR</type>
                        <versionedComponentId>b292855f-1f26-35d4-af73-8ccf783d2e23</versionedComponentId>
                    </source>
                    <zIndex>0</zIndex>
                </connections>
                <connections>
                    <id>22b92e3d-f2de-3d8c-0000-000000000000</id>
                    <parentGroupId>0ce6082e-0dbb-3f9d-0000-000000000000</parentGroupId>
                    <versionedComponentId>22b92e3d-f2de-3d8c-87ab-f0c98ed5f77c</versionedComponentId>
                    <backPressureDataSizeThreshold>1 GB</backPressureDataSizeThreshold>
                    <backPressureObjectThreshold>10000</backPressureObjectThreshold>
                    <destination>
                        <groupId>0ce6082e-0dbb-3f9d-0000-000000000000</groupId>
                        <id>6f01cd21-e121-329a-0000-000000000000</id>
                        <type>PROCESSOR</type>
                        <versionedComponentId>6f01cd21-e121-329a-863f-aa5aa6b255ab</versionedComponentId>
                    </destination>
                    <flowFileExpiration>0 sec</flowFileExpiration>
                    <labelIndex>1</labelIndex>
                    <name></name>
                    <selectedRelationships>success</selectedRelationships>
                    <source>
                        <groupId>0ce6082e-0dbb-3f9d-0000-000000000000</groupId>
                        <id>977cd7a3-bf8b-3f10-0000-000000000000</id>
                        <type>PROCESSOR</type>
                        <versionedComponentId>977cd7a3-bf8b-3f10-a2d0-2dc7aca01bf4</versionedComponentId>
                    </source>
                    <zIndex>0</zIndex>
                </connections>
                <connections>
                    <id>26d9fdaf-36c1-3bcb-0000-000000000000</id>
                    <parentGroupId>0ce6082e-0dbb-3f9d-0000-000000000000</parentGroupId>
                    <versionedComponentId>26d9fdaf-36c1-3bcb-80be-b7f6907223eb</versionedComponentId>
                    <backPressureDataSizeThreshold>1 GB</backPressureDataSizeThreshold>
                    <backPressureObjectThreshold>10000</backPressureObjectThreshold>
                    <destination>
                        <groupId>0ce6082e-0dbb-3f9d-0000-000000000000</groupId>
                        <id>b292855f-1f26-35d4-0000-000000000000</id>
                        <type>PROCESSOR</type>
                        <versionedComponentId>b292855f-1f26-35d4-af73-8ccf783d2e23</versionedComponentId>
                    </destination>
                    <flowFileExpiration>0 sec</flowFileExpiration>
                    <labelIndex>1</labelIndex>
                    <name></name>
                    <selectedRelationships>success</selectedRelationships>
                    <source>
                        <groupId>0ce6082e-0dbb-3f9d-0000-000000000000</groupId>
                        <id>83239507-2c12-3c40-0000-000000000000</id>
                        <type>PROCESSOR</type>
                        <versionedComponentId>83239507-2c12-3c40-b394-09d50aa1a13e</versionedComponentId>
                    </source>
                    <zIndex>0</zIndex>
                </connections>
                <connections>
                    <id>27a2eb65-8282-3173-0000-000000000000</id>
                    <parentGroupId>0ce6082e-0dbb-3f9d-0000-000000000000</parentGroupId>
                    <versionedComponentId>27a2eb65-8282-3173-aa6e-b613ce793a28</versionedComponentId>
                    <backPressureDataSizeThreshold>1 GB</backPressureDataSizeThreshold>
                    <backPressureObjectThreshold>10000</backPressureObjectThreshold>
                    <destination>
                        <groupId>0ce6082e-0dbb-3f9d-0000-000000000000</groupId>
                        <id>32043e44-3eea-33f8-0000-000000000000</id>
                        <type>PROCESSOR</type>
                        <versionedComponentId>32043e44-3eea-33f8-a770-c6569f8e0570</versionedComponentId>
                    </destination>
                    <flowFileExpiration>0 sec</flowFileExpiration>
                    <labelIndex>1</labelIndex>
                    <name></name>
                    <selectedRelationships>success</selectedRelationships>
                    <source>
                        <groupId>0ce6082e-0dbb-3f9d-0000-000000000000</groupId>
                        <id>535cabc7-83cc-3f21-0000-000000000000</id>
                        <type>PROCESSOR</type>
                        <versionedComponentId>535cabc7-83cc-3f21-b7d5-215998d12e36</versionedComponentId>
                    </source>
                    <zIndex>0</zIndex>
                </connections>
                <connections>
                    <id>34aec660-4584-3f05-0000-000000000000</id>
                    <parentGroupId>0ce6082e-0dbb-3f9d-0000-000000000000</parentGroupId>
                    <versionedComponentId>34aec660-4584-3f05-bed9-ea7a655ae4b1</versionedComponentId>
                    <backPressureDataSizeThreshold>1 GB</backPressureDataSizeThreshold>
                    <backPressureObjectThreshold>10000</backPressureObjectThreshold>
                    <destination>
                        <groupId>0ce6082e-0dbb-3f9d-0000-000000000000</groupId>
                        <id>c8efdaa4-b476-3869-0000-000000000000</id>
                        <type>PROCESSOR</type>
                        <versionedComponentId>c8efdaa4-b476-3869-b8e2-599ce4ae4821</versionedComponentId>
                    </destination>
                    <flowFileExpiration>0 sec</flowFileExpiration>
                    <labelIndex>1</labelIndex>
                    <name></name>
                    <selectedRelationships>success</selectedRelationships>
                    <source>
                        <groupId>0ce6082e-0dbb-3f9d-0000-000000000000</groupId>
                        <id>96b49aec-e4d1-3e9a-0000-000000000000</id>
                        <type>PROCESSOR</type>
                        <versionedComponentId>96b49aec-e4d1-3e9a-b1fd-3f79ff96177d</versionedComponentId>
                    </source>
                    <zIndex>0</zIndex>
                </connections>
                <connections>
                    <id>3cf1ac19-d548-36dc-0000-000000000000</id>
                    <parentGroupId>0ce6082e-0dbb-3f9d-0000-000000000000</parentGroupId>
                    <versionedComponentId>3cf1ac19-d548-36dc-aeb1-a723731aefdf</versionedComponentId>
                    <backPressureDataSizeThreshold>1 GB</backPressureDataSizeThreshold>
                    <backPressureObjectThreshold>10000</backPressureObjectThreshold>
                    <bends>
                        <x>302.9228879679914</x>
                        <y>946.7770608766041</y>
                    </bends>
                    <bends>
                        <x>254.10111062424141</x>
                        <y>992.8185037476978</y>
                    </bends>
                    <destination>
                        <groupId>0ce6082e-0dbb-3f9d-0000-000000000000</groupId>
                        <id>32043e44-3eea-33f8-0000-000000000000</id>
                        <type>PROCESSOR</type>
                        <versionedComponentId>32043e44-3eea-33f8-a770-c6569f8e0570</versionedComponentId>
                    </destination>
                    <flowFileExpiration>0 sec</flowFileExpiration>
                    <labelIndex>1</labelIndex>
                    <name></name>
                    <selectedRelationships>failure</selectedRelationships>
                    <source>
                        <groupId>0ce6082e-0dbb-3f9d-0000-000000000000</groupId>
                        <id>32043e44-3eea-33f8-0000-000000000000</id>
                        <type>PROCESSOR</type>
                        <versionedComponentId>32043e44-3eea-33f8-a770-c6569f8e0570</versionedComponentId>
                    </source>
                    <zIndex>0</zIndex>
                </connections>
                <connections>
                    <id>4386ebc8-3f12-3366-0000-000000000000</id>